Circuito_teste/Circuito_OpenDSS/Teste_VLN_Node.Txt

LINE-GROUND and LINE-LINE VOLTAGES BY BUS & NODE

Bus       Node    VLN (kV)   Angle      pu     Base kV    Node-Node   VLL (kV)  Angle      pu

SOURCEBUS 1       7.9682 /_   30.0    1.0001    13.800        1-2     13.801 /_   60.0    1.0001
   -      2       7.9682 /_  -90.0    1.0001    13.800        2-3     13.801 /_  -60.0    1.0001
   -      3       7.9682 /_  150.0    1.0001    13.800        3-1     13.801 /_ -180.0    1.0001
N01 ..... 1      0.12703 /_    0.0    1.0001     0.220        1-2    0.22002 /_   30.0    1.0001
   -      2      0.12703 /_ -120.0    1.0001     0.220        2-3    0.22002 /_  -90.0    1.0001
   -      3      0.12703 /_  120.0    1.0001     0.220        3-1    0.22002 /_  150.0    1.0001
N02 ..... 1      0.12703 /_    0.0    1.0001     0.220        1-2    0.22002 /_   30.0    1.0001
   -      2      0.12703 /_ -120.0    1.0001     0.220        2-3    0.22002 /_  -90.0    1.0001
   -      3      0.12703 /_  120.0    1.0001     0.220        3-1    0.22002 /_  150.0    1.0001
N04 ..... 1      0.12703 /_    0.0    1.0001     0.220        1-2    0.22002 /_   30.0    1.0001
   -      2      0.12703 /_ -120.0    1.0001     0.220        2-3    0.22002 /_  -90.0    1.0001
   -      3      0.12703 /_  120.0    1.0001     0.220        3-1    0.22002 /_  150.0    1.0001
N03 ..... 1      0.12703 /_    0.0    1.0001     0.220        1-2    0.22002 /_   30.0    1.0001
   -      2      0.12703 /_ -120.0    1.0001     0.220        2-3    0.22002 /_  -90.0    1.0001
   -      3      0.12703 /_  120.0    1.0001     0.220        3-1    0.22002 /_  150.0    1.0001
N05 ..... 1      0.12703 /_    0.0    1.0001     0.220        1-2    0.22002 /_   30.0    1.0001
   -      2      0.12703 /_ -120.0    1.0001     0.220        2-3    0.22002 /_  -90.0    1.0001
   -      3      0.12703 /_  120.0    1.0001     0.220        3-1    0.22002 /_  150.0    1.0001
N06 ..... 1      0.12703 /_    0.0    1.0001     0.220        1-2    0.22002 /_   30.0    1.0001
   -      2      0.12703 /_ -120.0    1.0001     0.220        2-3    0.22002 /_  -90.0    1.0001
   -      3      0.12703 /_  120.0    1.0001     0.220        3-1    0.22002 /_  150.0    1.0001
N08 ..... 1      0.12703 /_    0.0    1.0001     0.220        1-2    0.22002 /_   30.0    1.0001
   -      2      0.12703 /_ -120.0    1.0001     0.220        2-3    0.22002 /_  -90.0    1.0001
   -      3      0.12703 /_  120.0    1.0001     0.220        3-1    0.22002 /_  150.0    1.0001
S111 .... 1      0.12703 /_    0.0    1.0001     0.220        1-2    0.22002 /_   30.0    1.0001
   -      2      0.12703 /_ -120.0    1.0001     0.220        2-3    0.22002 /_  -90.0    1.0001
   -      3      0.12703 /_  120.0    1.0001     0.220        3-1    0.22002 /_  150.0    1.0001
N11 ..... 1      0.12703 /_    0.0    1.0001     0.220        1-2    0.22002 /_   30.0    1.0001
   -      2      0.12703 /_ -120.0    1.0001     0.220        2-3    0.22002 /_  -90.0    1.0001
   -      3      0.12703 /_  120.0    1.0001     0.220        3-1    0.22002 /_  150.0    1.0001
N09 ..... 1      0.12703 /_    0.0    1.0001     0.220        1-2    0.22002 /_   30.0    1.0001
   -      2      0.12703 /_ -120.0    1.0001     0.220        2-3    0.22002 /_  -90.0    1.0001
   -      3      0.12703 /_  120.0    1.0001     0.220        3-1    0.22002 /_  150.0    1.0001
N12 ..... 1      0.12703 /_    0.0    1.0001     0.220        1-2    0.22002 /_   30.0    1.0001
   -      2      0.12703 /_ -120.0    1.0001     0.220        2-3    0.22002 /_  -90.0    1.0001
   -      3      0.12703 /_  120.0    1.0001     0.220        3-1    0.22002 /_  150.0    1.0001
N14 ..... 1      0.12703 /_    0.0    1.0001     0.220        1-2    0.22002 /_   30.0    1.0001
   -      2      0.12703 /_ -120.0    1.0001     0.220        2-3    0.22002 /_  -90.0    1.0001
   -      3      0.12703 /_  120.0    1.0001     0.220        3-1    0.22002 /_  150.0    1.0001
N13 ..... 1      0.12703 /_    0.0    1.0001     0.220        1-2    0.22002 /_   30.0    1.0001
   -      2      0.12703 /_ -120.0    1.0001     0.220        2-3    0.22002 /_  -90.0    1.0001
   -      3      0.12703 /_  120.0    1.0001     0.220        3-1    0.22002 /_  150.0    1.0001
N18 ..... 1      0.12703 /_    0.0    1.0001     0.220        1-2    0.22002 /_   30.0    1.0001
   -      2      0.12703 /_ -120.0    1.0001     0.220        2-3    0.22002 /_  -90.0    1.0001
   -      3      0.12703 /_  120.0    1.0001     0.220        3-1    0.22002 /_  150.0    1.0001
N22 ..... 1      0.12703 /_    0.0    1.0001     0.220        1-2    0.22002 /_   30.0    1.0001
   -      2      0.12703 /_ -120.0    1.0001     0.220        2-3    0.22002 /_  -90.0    1.0001
   -      3      0.12703 /_  120.0    1.0001     0.220        3-1    0.22002 /_  150.0    1.0001
S124 .... 1      0.12703 /_    0.0    1.0001     0.220        1-2    0.22002 /_   30.0    1.0001
   -      2      0.12703 /_ -120.0    1.0001     0.220        2-3    0.22002 /_  -90.0    1.0001
   -      3      0.12703 /_  120.0    1.0001     0.220        3-1    0.22002 /_  150.0    1.0001
N24 ..... 1      0.12703 /_    0.0    1.0001     0.220        1-2    0.22002 /_   30.0    1.0001
   -      2      0.12703 /_ -120.0    1.0001     0.220        2-3    0.22002 /_  -90.0    1.0001
   -      3      0.12703 /_  120.0    1.0001     0.220        3-1    0.22002 /_  150.0    1.0001
N25 ..... 1      0.12703 /_    0.0    1.0001     0.220        1-2    0.22002 /_   30.0    1.0001
   -      2      0.12703 /_ -120.0    1.0001     0.220        2-3    0.22002 /_  -90.0    1.0001
   -      3      0.12703 /_  120.0    1.0001     0.220        3-1    0.22002 /_  150.0    1.0001
N26 ..... 1      0.12703 /_    0.0    1.0001     0.220        1-2    0.22002 /_   30.0    1.0001
   -      2      0.12703 /_ -120.0    1.0001     0.220        2-3    0.22002 /_  -90.0    1.0001
   -      3      0.12703 /_  120.0    1.0001     0.220        3-1    0.22002 /_  150.0    1.0001
N23 ..... 1      0.12703 /_    0.0    1.0001     0.220        1-2    0.22002 /_   30.0    1.0001
   -      2      0.12703 /_ -120.0    1.0001     0.220        2-3    0.22002 /_  -90.0    1.0001
   -      3      0.12703 /_  120.0    1.0001     0.220        3-1    0.22002 /_  150.0    1.0001
N21 ..... 1      0.12703 /_    0.0    1.0001     0.220        1-2    0.22002 /_   30.0    1.0001
   -      2      0.12703 /_ -120.0    1.0001     0.220        2-3    0.22002 /_  -90.0    1.0001
   -      3      0.12703 /_  120.0    1.0001     0.220        3-1    0.22002 /_  150.0    1.0001
N20 ..... 1      0.12703 /_    0.0    1.0001     0.220        1-2    0.22002 /_   30.0    1.0001
   -      2      0.12703 /_ -120.0    1.0001     0.220        2-3    0.22002 /_  -90.0    1.0001
   -      3      0.12703 /_  120.0    1.0001     0.220        3-1    0.22002 /_  150.0    1.0001
N19 ..... 1      0.12703 /_    0.0    1.0001     0.220        1-2    0.22002 /_   30.0    1.0001
   -      2      0.12703 /_ -120.0    1.0001     0.220        2-3    0.22002 /_  -90.0    1.0001
   -      3      0.12703 /_  120.0    1.0001     0.220        3-1    0.22002 /_  150.0    1.0001
N17 ..... 1      0.12703 /_    0.0    1.0001     0.220        1-2    0.22002 /_   30.0    1.0001
   -      2      0.12703 /_ -120.0    1.0001     0.220        2-3    0.22002 /_  -90.0    1.0001
   -      3      0.12703 /_  120.0    1.0001     0.220        3-1    0.22002 /_  150.0    1.0001
N15 ..... 1      0.12703 /_    0.0    1.0001     0.220        1-2    0.22002 /_   30.0    1.0001
   -      2      0.12703 /_ -120.0    1.0001     0.220        2-3    0.22002 /_  -90.0    1.0001
   -      3      0.12703 /_  120.0    1.0001     0.220        3-1    0.22002 /_  150.0    1.0001
S116 .... 1      0.12703 /_    0.0    1.0001     0.220        1-2    0.22002 /_   30.0    1.0001
   -      2      0.12703 /_ -120.0    1.0001     0.220        2-3    0.22002 /_  -90.0    1.0001
   -      3      0.12703 /_  120.0    1.0001     0.220        3-1    0.22002 /_  150.0    1.0001
N16 ..... 1      0.12703 /_    0.0    1.0001     0.220        1-2    0.22002 /_   30.0    1.0001
   -      2      0.12703 /_ -120.0    1.0001     0.220        2-3    0.22002 /_  -90.0    1.0001
   -      3      0.12703 /_  120.0    1.0001     0.220        3-1    0.22002 /_  150.0    1.0001
N10 ..... 1      0.12703 /_    0.0    1.0001     0.220        1-2    0.22002 /_   30.0    1.0001
   -      2      0.12703 /_ -120.0    1.0001     0.220        2-3    0.22002 /_  -90.0    1.0001
   -      3      0.12703 /_  120.0    1.0001     0.220        3-1    0.22002 /_  150.0    1.0001
N07 ..... 1      0.12703 /_    0.0    1.0001     0.220        1-2    0.22002 /_   30.0    1.0001
   -      2      0.12703 /_ -120.0    1.0001     0.220        2-3    0.22002 /_  -90.0    1.0001
   -      3      0.12703 /_  120.0    1.0001     0.220        3-1    0.22002 /_  150.0    1.0001
